Circuit: * D:\Workspace\BracU\LAB\CSE250\LAB09\ckt1.asc

.OP point found by inspection.

Date: Wed Nov 29 21:28:40 2023
Total elapsed time: 0.368 seconds.

tnom = 27
temp = 27
method = modified trap
totiter = 16034
traniter = 16034
tranpoints = 8018
accept = 8018
rejected = 0
matrix size = 3
fillins = 0
solver = Normal
Avg thread counts: 1.3/1.5/1.5/1.3
Matrix Compiler1:       5 opcodes  0.1/[0.1]/0.2
Matrix Compiler2: off  [0.0]/0.1/0.1

