Circuit: * D:\Workspace\BracU\LAB\CSE250\LAB05\circuit3.asc


Date: Sat Nov 18 15:53:36 2023
Total elapsed time: 0.074 seconds.

tnom = 27
temp = 27
method = trap
totiter = 203
traniter = 0
tranpoints = 0
accept = 0
rejected = 0
matrix size = 6
fillins = 0
solver = Normal
Avg thread counts: 12.0/0.0/12.0/12.0
Matrix Compiler1:      10 opcodes  0.2/[0.1]/0.2
Matrix Compiler2: 374 bytes object code size  0.1/0.1/[0.1]

