Circuit: * D:\Workspace\BracU\LAB\CSE250\LAB06\circuit1.asc

WARNING: Less than two connections to node nc_01.  This node is used by r5.
Direct Newton iteration for .op point succeeded.

Date: Sat Nov 25 15:14:10 2023
Total elapsed time: 0.035 seconds.

tnom = 27
temp = 27
method = trap
totiter = 4
traniter = 0
tranpoints = 0
accept = 0
rejected = 0
matrix size = 8
fillins = 3
solver = Normal
Avg thread counts: 12.0/0.0/12.0/12.0
Matrix Compiler1: 456 bytes object code size
Matrix Compiler2: 608 bytes object code size
