Circuit: * D:\Workspace\BracU\LAB\CSE250\LAB06\isc.asc

Direct Newton iteration for .op point succeeded.

Date: Sat Nov 25 15:18:37 2023
Total elapsed time: 0.047 seconds.

tnom = 27
temp = 27
method = trap
totiter = 4
traniter = 0
tranpoints = 0
accept = 0
rejected = 0
matrix size = 7
fillins = 3
solver = Normal
Avg thread counts: 12.0/0.0/12.0/12.0
Matrix Compiler1: 406 bytes object code size
Matrix Compiler2: 535 bytes object code size
