Circuit: * D:\Workspace\BracU\LAB\CSE250\LAB06\ivchar.asc


Date: Sat Nov 25 15:34:04 2023
Total elapsed time: 0.033 seconds.

tnom = 27
temp = 27
method = trap
totiter = 203
traniter = 0
tranpoints = 0
accept = 0
rejected = 0
matrix size = 10
fillins = 3
solver = Normal
Avg thread counts: 12.0/0.0/12.0/12.0
Matrix Compiler1: 502 bytes object code size  0.3/0.3/[0.2]
Matrix Compiler2: off  [0.1]/0.3/0.1

