Circuit: * D:\Workspace\BracU\LAB\CSE250\LAB06\maxpow.asc

Direct Newton iteration for .op point succeeded.

Date: Sat Nov 25 15:46:14 2023
Total elapsed time: 3.588 seconds.

tnom = 27
temp = 27
method = trap
totiter = 3
traniter = 0
tranpoints = 0
accept = 0
rejected = 0
matrix size = 3
fillins = 0
solver = Normal
Avg thread counts: 12.0/0.0/12.0/12.0
Matrix Compiler1: 68 bytes object code size
Matrix Compiler2: 175 bytes object code size
