Circuit: * D:\Workspace\BracU\LAB\CSE250\LAB FINAL\ckt1.asc

Direct Newton iteration for .op point succeeded.

Date: Sat Dec  2 14:48:05 2023
Total elapsed time: 0.056 seconds.

tnom = 27
temp = 27
method = trap
totiter = 10
traniter = 0
tranpoints = 0
accept = 0
rejected = 0
matrix size = 7
fillins = 2
solver = Normal
Avg thread counts: 12.0/0.0/12.0/12.0
Matrix Compiler1: 312 bytes object code size
Matrix Compiler2: 507 bytes object code size
