Circuit: * D:\Workspace\BracU\LAB\CSE250\LAB08\ckt1.asc

WARNING: Node N001 is floating.

Direct Newton iteration for .op point succeeded.

Date: Wed Nov 29 19:06:30 2023
Total elapsed time: 1.195 seconds.

tnom = 27
temp = 27
method = modified trap
totiter = 160185
traniter = 160182
tranpoints = 80092
accept = 80080
rejected = 12
matrix size = 4
fillins = 0
solver = Normal
Avg thread counts: 1.0/1.1/1.1/1.0
Matrix Compiler1:       6 opcodes  0.1/[0.1]/0.1
Matrix Compiler2: 248 bytes object code size  0.1/0.1/[0.1]

