Circuit: * D:\Workspace\BracU\LAB\CSE250\LAB05\circuit1.asc

Direct Newton iteration for .op point succeeded.

Date: Sat Nov 18 15:36:18 2023
Total elapsed time: 0.065 seconds.

tnom = 27
temp = 27
method = trap
totiter = 3
traniter = 0
tranpoints = 0
accept = 0
rejected = 0
matrix size = 4
fillins = 0
solver = Normal
Avg thread counts: 12.0/0.0/12.0/12.0
Matrix Compiler1: 118 bytes object code size
Matrix Compiler2: 248 bytes object code size
