Circuit: * D:\Workspace\BracU\LAB\CSE250\LAB05\circuit2.asc


Date: Sat Nov 18 15:37:10 2023
Total elapsed time: 0.053 seconds.

tnom = 27
temp = 27
method = trap
totiter = 163
traniter = 0
tranpoints = 0
accept = 0
rejected = 0
matrix size = 5
fillins = 0
solver = Normal
Avg thread counts: 12.0/0.0/12.0/12.0
Matrix Compiler1: off  [0.1]/0.2/0.1
Matrix Compiler2: 301 bytes object code size  0.1/0.3/[0.1]

